*Heading
** Job name: CRUSHING_3 Model name: CRUSHING
** Generated by: Abaqus/CAE 2022
*Preprint, echo=NO, model=NO, history=NO, contact=NO
**
** PARTS
**
*Part, name=Cross-section
*Node
      1,      -62.625,       26.625,   9.91499996
      2,      -62.625,       26.625,         430.
      3,      -62.625,           0.,         430.
      4,      -62.625,      -26.625,         430.
      5,      -62.625,           0.,   9.91499996
      6,      -62.625,      -26.625,   9.91499996
      7,  -52.7200089,   36.6240959,   8.34680843
      8,  -52.7200089,   36.6240959,         430.
      9,           0.,       37.125,           0.
     10,           0.,       37.125,         430.
     11,       62.625,       26.625,   9.91499996
     12,       62.625,           0.,   9.91499996
     13,       62.625,      -26.625,   9.91499996
     14,       62.625,           0.,         430.
     15,       62.625,      -26.625,         430.
     16,       62.625,       26.625,         430.
     17,           0.,  -23.6749992,           0.
     18,           0.,  -23.6749992,         430.
     19,           0.,      -37.125,         430.
     20,           0.,      -37.125,           0.
** ... 7806 like lines cut
*Element, type=S4R
  1,    1,   31, 1191,  210
  2,   31,   32, 1192, 1191
  3,   32,   33, 1193, 1192
  4,   33,   34, 1194, 1193
  5,   34,   35, 1195, 1194
  6,   35,   36, 1196, 1195
  7,   36,   37, 1197, 1196
  8,   37,   38, 1198, 1197
  9,   38,   39, 1199, 1198
 10,   39,   40, 1200, 1199
 11,   40,   41, 1201, 1200
 12,   41,   42, 1202, 1201
 13,   42,   43, 1203, 1202
 14,   43,   44, 1204, 1203
 15,   44,   45, 1205, 1204
 16,   45,   46, 1206, 1205
 17,   46,   47, 1207, 1206
 18,   47,   48, 1208, 1207
 19,   48,   49, 1209, 1208
 20,   49,   50, 1210, 1209
** ... 7800 like lines cut
*Nset, nset=INSIDE_WALL_SIDE
    9,   10,   17,   18,   19,   20,   21,   22,  313,  314,  315,  316,  317,  318,  319,  320
  321,  322,  323,  324,  325,  326,  327,  328,  329,  330,  331,  332,  333,  334,  335,  336
  337,  338,  339,  340,  341,  342,  343,  344,  345,  346,  347,  348,  349,  350,  351,  352
  353,  354,  355,  356,  357,  358,  359,  360,  361,  362,  363,  364,  365,  366,  367,  368
  369,  370,  371,  372,  373,  374,  375,  376,  377,  378,  379,  380,  381,  382,  383,  384
  385,  386,  387,  388,  389,  390,  391,  392,  393,  394,  395,  396,  591,  592,  593,  594
  595,  596,  597,  598,  599,  600,  601,  602,  603,  604,  605,  606,  607,  608,  609,  610
  611,  612,  613,  614,  615,  616,  617,  618,  619,  620,  621,  622,  623,  624,  625,  626
  627,  628,  629,  630,  631,  632,  633,  634,  635,  636,  637,  638,  639,  640,  641,  642
  643,  644,  645,  646,  647,  648,  649,  650,  651,  652,  653,  654,  655,  656,  657,  658
  659,  660,  661,  662,  663,  664,  665,  666,  667,  668,  669,  670,  671,  672,  673,  674
  675,  676,  677,  678,  679,  680,  681,  682,  683,  684,  685,  686,  687,  688,  689,  690
  691,  692,  693,  694,  695,  696,  697,  698,  699,  700,  701,  702,  703,  704,  705,  706
  707,  708,  709,  710,  711,  712,  713,  714,  715,  716,  717,  718,  719,  720,  721,  722
  723,  724,  725,  726,  727,  728,  729,  730,  731,  732,  733,  734,  735,  736,  737,  738
  739,  740,  741,  742,  743,  744,  745,  746,  747,  748,  749,  750,  751,  752,  753,  754
  755,  756,  757,  758,  759,  760,  761,  762,  763,  764,  765,  766,  767,  768,  769,  770
  771,  772,  773,  774,  775,  776,  777,  778,  779,  780,  781,  782,  783,  784,  785,  786
  787,  788,  789,  790,  791,  792,  793,  794,  795,  796,  797,  798,  799,  800,  801,  802
  803,  804,  805,  806,  807,  808,  809,  810,  811,  812,  813,  814,  815,  816,  817,  818
** ... 23 like lines cut
*Elset, elset=INSIDE_WALL_SIDE, generate
 2891,  3400,     1
*Nset, nset=INSIDE_WALL_MIDDLE
   17,   18,   21,   22,   29,   30,  591,  592,  593,  594,  595,  596,  597,  598,  599,  600
  601,  602,  603,  604,  605,  606,  607,  608,  609,  610,  611,  612,  613,  614,  615,  616
  617,  618,  619,  620,  621,  622,  623,  624,  625,  626,  627,  628,  629,  630,  631,  632
  633,  634,  635,  636,  637,  638,  639,  640,  641,  642,  643,  644,  645,  646,  647,  648
  649,  650,  651,  652,  653,  654,  655,  656,  657,  658,  659,  660,  661,  662,  663,  664
  665,  666,  667,  668,  669,  670,  671,  672,  673,  674,  763,  764,  765,  766,  767,  768
  769,  770,  771,  772,  773,  774,  775,  776,  777,  778,  779,  780,  781,  782,  783,  784
  785,  786,  787,  788,  789,  790,  791,  792,  793,  794,  795,  796,  797,  798,  799,  800
  801,  802,  803,  804,  805,  806,  807,  808,  809,  810,  811,  812,  813,  814,  815,  816
  817,  818,  819,  820,  821,  822,  823,  824,  825,  826,  827,  828,  829,  830,  831,  832
  833,  834,  835,  836,  837,  838,  839,  840,  841,  842,  843,  844,  845,  846, 1175, 1176
 1177, 1178, 1179, 1180, 1181, 1182, 1183, 1184, 1185, 1186, 1187, 1188, 1189, 1190, 7071, 7072
 7073, 7074, 7075, 7076, 7077, 7078, 7079, 7080, 7081, 7082, 7083, 7084, 7085, 7086, 7087, 7088
 7089, 7090, 7091, 7092, 7093, 7094, 7095, 7096, 7097, 7098, 7099, 7100, 7101, 7102, 7103, 7104
 7105, 7106, 7107, 7108, 7109, 7110, 7111, 7112, 7113, 7114, 7115, 7116, 7117, 7118, 7119, 7120
 7121, 7122, 7123, 7124, 7125, 7126, 7127, 7128, 7129, 7130, 7131, 7132, 7133, 7134, 7135, 7136
 7137, 7138, 7139, 7140, 7141, 7142, 7143, 7144, 7145, 7146, 7147, 7148, 7149, 7150, 7151, 7152
 7153, 7154, 7155, 7156, 7157, 7158, 7159, 7160, 7161, 7162, 7163, 7164, 7165, 7166, 7167, 7168
 7169, 7170, 7171, 7172, 7173, 7174, 7175, 7176, 7177, 7178, 7179, 7180, 7181, 7182, 7183, 7184
 7185, 7186, 7187, 7188, 7189, 7190, 7191, 7192, 7193, 7194, 7195, 7196, 7197, 7198, 7199, 7200
** ... 40 like lines cut
*Elset, elset=INSIDE_WALL_MIDDLE, generate
 6971,  7820,     1
*Nset, nset=WHOLE, generate
    1,  7826,     1
*Elset, elset=WHOLE, generate
    1,  7820,     1
*Nset, nset=OUTER_WALL
    1,    2,    3,    4,    5,    6,    7,    8,    9,   10,   11,   12,   13,   14,   15,   16
   19,   20,   23,   24,   25,   26,   27,   28,   31,   32,   33,   34,   35,   36,   37,   38
   39,   40,   41,   42,   43,   44,   45,   46,   47,   48,   49,   50,   51,   52,   53,   54
   55,   56,   57,   58,   59,   60,   61,   62,   63,   64,   65,   66,   67,   68,   69,   70
   71,   72,   73,   74,   75,   76,   77,   78,   79,   80,   81,   82,   83,   84,   85,   86
   87,   88,   89,   90,   91,   92,   93,   94,   95,   96,   97,   98,   99,  100,  101,  102
  103,  104,  105,  106,  107,  108,  109,  110,  111,  112,  113,  114,  115,  116,  117,  118
  119,  120,  121,  122,  123,  124,  125,  126,  127,  128,  129,  130,  131,  132,  133,  134
  135,  136,  137,  138,  139,  140,  141,  142,  143,  144,  145,  146,  147,  148,  149,  150
  151,  152,  153,  154,  155,  156,  157,  158,  159,  160,  161,  162,  163,  164,  165,  166
  167,  168,  169,  170,  171,  172,  173,  174,  175,  176,  177,  178,  179,  180,  181,  182
  183,  184,  185,  186,  187,  188,  189,  190,  191,  192,  193,  194,  195,  196,  197,  198
  199,  200,  201,  202,  203,  204,  205,  206,  207,  208,  209,  210,  211,  212,  213,  214
  215,  216,  217,  218,  219,  220,  221,  222,  223,  224,  225,  226,  227,  228,  229,  230
  231,  232,  233,  234,  235,  236,  237,  238,  239,  240,  241,  242,  243,  244,  245,  246
  247,  248,  249,  250,  251,  252,  253,  254,  255,  256,  257,  258,  259,  260,  261,  262
  263,  264,  265,  266,  267,  268,  269,  270,  271,  272,  273,  274,  275,  276,  277,  278
  279,  280,  281,  282,  283,  284,  285,  286,  287,  288,  289,  290,  291,  292,  293,  294
  295,  296,  297,  298,  299,  300,  301,  302,  303,  304,  305,  306,  307,  308,  309,  310
  311,  312,  313,  314,  315,  316,  317,  318,  319,  320,  321,  322,  323,  324,  325,  326
** ... 389 like lines cut
*Elset, elset=OUTER_WALL
    1,    2,    3,    4,    5,    6,    7,    8,    9,   10,   11,   12,   13,   14,   15,   16
   17,   18,   19,   20,   21,   22,   23,   24,   25,   26,   27,   28,   29,   30,   31,   32
   33,   34,   35,   36,   37,   38,   39,   40,   41,   42,   43,   44,   45,   46,   47,   48
   49,   50,   51,   52,   53,   54,   55,   56,   57,   58,   59,   60,   61,   62,   63,   64
   65,   66,   67,   68,   69,   70,   71,   72,   73,   74,   75,   76,   77,   78,   79,   80
   81,   82,   83,   84,   85,   86,   87,   88,   89,   90,   91,   92,   93,   94,   95,   96
   97,   98,   99,  100,  101,  102,  103,  104,  105,  106,  107,  108,  109,  110,  111,  112
  113,  114,  115,  116,  117,  118,  119,  120,  121,  122,  123,  124,  125,  126,  127,  128
  129,  130,  131,  132,  133,  134,  135,  136,  137,  138,  139,  140,  141,  142,  143,  144
  145,  146,  147,  148,  149,  150,  151,  152,  153,  154,  155,  156,  157,  158,  159,  160
  161,  162,  163,  164,  165,  166,  167,  168,  169,  170,  171,  172,  173,  174,  175,  176
  177,  178,  179,  180,  181,  182,  183,  184,  185,  186,  187,  188,  189,  190,  191,  192
  193,  194,  195,  196,  197,  198,  199,  200,  201,  202,  203,  204,  205,  206,  207,  208
  209,  210,  211,  212,  213,  214,  215,  216,  217,  218,  219,  220,  221,  222,  223,  224
  225,  226,  227,  228,  229,  230,  231,  232,  233,  234,  235,  236,  237,  238,  239,  240
  241,  242,  243,  244,  245,  246,  247,  248,  249,  250,  251,  252,  253,  254,  255,  256
  257,  258,  259,  260,  261,  262,  263,  264,  265,  266,  267,  268,  269,  270,  271,  272
  273,  274,  275,  276,  277,  278,  279,  280,  281,  282,  283,  284,  285,  286,  287,  288
  289,  290,  291,  292,  293,  294,  295,  296,  297,  298,  299,  300,  301,  302,  303,  304
  305,  306,  307,  308,  309,  310,  311,  312,  313,  314,  315,  316,  317,  318,  319,  320
** ... 384 like lines cut
*Nset, nset=CLAMPED
    2,    3,    4,    8,   10,   14,   15,   16,   18,   19,   21,   24,   26,   28,   29,  115
  116,  117,  118,  119,  120,  121,  122,  301,  302,  397,  398,  399,  400,  401,  402,  403
  404,  405,  406,  499,  500,  501,  502,  503,  504,  505,  506,  675,  676,  849,  850,  853
  854,  949,  950,  951,  952,  953,  954,  955,  956,  957,  958, 1045, 1046, 1057, 1058, 1059
 1060, 1061, 1062, 1063, 1064, 1065, 1066, 1069, 1070, 1165, 1166, 1167, 1168, 1169, 1170, 1171
 1172, 1173, 1174, 1175, 1176, 1177, 1178, 1179, 1180, 1181, 1182
*Elset, elset=CLAMPED
   85,  170,  255,  340,  425,  510,  595,  680,  765,  850, 1103, 1104, 1105, 2030, 2031, 2032
 2033, 2034, 2035, 2036, 2037, 2038, 2039, 2040, 2881, 2882, 2883, 2884, 2885, 2886, 2887, 2888
 2889, 2890, 2975, 3060, 3145, 3146, 3231, 3316, 3653, 3654, 3655, 4580, 4581, 4582, 4583, 4584
 4585, 4586, 4587, 4588, 4589, 4590, 4843, 4844, 4845, 5770, 5771, 5772, 5773, 5774, 5775, 5776
 5777, 5778, 5779, 5780, 6033, 6034, 6035, 6960, 6961, 6962, 6963, 6964, 6965, 6966, 6967, 6968
 6969, 6970, 7055, 7140, 7225, 7310, 7395, 7480, 7565, 7650, 7735, 7820
** Section: OUTER_WALL
*SHELL SECTION, ELSET=OUTER_WALL, MATERIAL=C28_OUTER_WALL, SHELL THICKNESS=OUTER_DISTRIBUTION_THICKNESS
               1.,        5
*DISTRIBUTION, LOCATION=ELEMENT, TABLE=OUTER_DISTRIBUTION_TABLE_THICKNESS, NAME=OUTER_DISTRIBUTION_THICKNESS
        ,               1.
 1,2.62343032507393
2,2.6947162009668992
3,2.757956435793103
4,2.6389604801444406
5,2.7831562252563398
6,2.720893271801038
7,2.7087012939672697
8,2.771596088842976
9,2.6891338368998783
10,2.7304966203349914
11,2.6950312104641543
12,2.575711985290446
13,2.6404290698973707
14,2.5300403125227806
15,2.6795651324826273
16,2.7528919575407396
17,2.6519693044946067
18,2.624343066121297
19,2.7297473428897048
20,2.6411278602323836
** ... 6440 like lines cut
** Section: INSIDE_WALL_SIDE
*SHELL SECTION, ELSET=INSIDE_WALL_SIDE, MATERIAL=C28_INSIDE_WALL_SIDE, SHELL THICKNESS=INSIDE_WALL_SIDE_DISTRIBUTION_THICKNESS
               1.,        5
*DISTRIBUTION, LOCATION=ELEMENT, TABLE=INSIDE_WALL_SIDE_DISTRIBUTION_TABLE_THICKNESS, NAME=INSIDE_WALL_SIDE_DISTRIBUTION_THICKNESS
        ,               1.
 2891,1.8358357196831903
2892,2.0360467763588885
2893,1.9817817592661857
2894,2.1012416801107854
2895,1.8512032022791738
2896,2.0240936581943925
2897,1.9627784214269195
2898,2.1172564127886693
2899,2.1174360604991933
2900,2.1158661666156418
2901,1.9747900613517653
2902,2.1679097776186316
2903,1.9871164233821879
2904,2.0081569044800442
2905,1.9832162456120368
2906,2.0284606170267097
2907,2.0680106615959017
2908,1.8172283301938006
2909,1.7902315442447085
2910,1.944593172695677
** ... 490 like lines cut
** Section: INSIDE_WALL_MIDDLE
*SHELL SECTION, ELSET=INSIDE_WALL_MIDDLE, MATERIAL=C28_INSIDE_WALL_MIDDLE, SHELL THICKNESS=INSIDE_WALL_MIDDLE_DISTRIBUTION_THICKNESS
               1.,        5
*DISTRIBUTION, LOCATION=ELEMENT, TABLE=INSIDE_WALL_MIDDLE_DISTRIBUTION_TABLE_THICKNESS, NAME=INSIDE_WALL_MIDDLE_DISTRIBUTION_THICKNESS
        ,               1.
 6971,1.3922488803580964
6972,1.3670257804519792
6973,1.7165313913716287
6974,1.5041684824216812
6975,1.6516899261174878
6976,1.4030669650807372
6977,1.5042230834597832
6978,1.5378758215650357
6979,1.399014250910819
6980,1.7045951642325863
6981,1.3084244141115895
6982,1.3505042351949006
6983,1.3890250789682117
6984,1.5009780167421407
6985,1.4830520880086213
6986,1.5901007554657496
6987,1.6369033452698902
6988,1.4968641079289013
6989,1.411668246362431
6990,1.6158155063497002
** ... 830 like lines cut
*End Part
**
*DISTRIBUTION TABLE, NAME=OUTER_DISTRIBUTION_TABLE_THICKNESS
LENGTH,
**
*DISTRIBUTION TABLE, NAME=INSIDE_WALL_SIDE_DISTRIBUTION_TABLE_THICKNESS
LENGTH,
**
*DISTRIBUTION TABLE, NAME=INSIDE_WALL_MIDDLE_DISTRIBUTION_TABLE_THICKNESS
LENGTH,
**
*Part, name=Plate_impactor
*End Part
**  
**
** ASSEMBLY
**
*Assembly, name=Assembly
**  
*Instance, name=Cross-section, part=Cross-section
*End Instance
**  
*Instance, name=IMPACTOR-1, part=Plate_impactor
          0.,           0.,          -1.
          0.,           0.,          -1.,           1.,           0.,          -1.,          90.
*Node
      1,        -100.,           0.,           0.
*Nset, nset=IMPACTOR-1-RefPt_, internal
1, 
*Nset, nset=IMPACTOR_RP
 1,
*Surface, type=CYLINDER, name=Plate_impactor
START,        -100.,           0.
 LINE,         100.,           0.
*Rigid Body, ref node=IMPACTOR-1-RefPt_, analytical surface=Plate_impactor
*End Instance
**  
*End Assembly
*Amplitude, name=Load_amp, definition=SMOOTH STEP
             0.,              0.,           0.005,              1.
** 
** MATERIALS
** 
*****************************************************************************
****                              OUTER WALL                             ****
*****************************************************************************
*material,name=C28_OUTER_WALL
*density
2.7e-9
*Elastic
70000, 0.3
*Plastic, hardening=USER, properties=8
** SIGMA0,  THETA1,     Q1,    THETA2,      Q2,   THETA3,       Q3,   BLANK
 267.1,  32.602, 1.8230,    1425.7,  48.633, 129300.0,    10.675,     0.0
*Depvar, delete=6
6,
1,PEEQ,"equivalent plastic strain"
2,DAMAGE,"Damage Cockcroft-Latham"
3,leote,"Element aspect ratio"
4,omega,"Element deformation mode"
5,N,"Element normal"
6,FAIL,"Failure status"
*User Defined Field, properties=8
** dcrit,     WcB,    WcS,   WcL,      c, phi, gamma,  THICK
     1.0,  390.47,  83.46,  33.0,  0.950, 1.0,   1.0, 2.65
*****************************************************************************
****                           INSIDE WALL SIDE                          ****
*****************************************************************************
*material,name=C28_INSIDE_WALL_SIDE
*density
2.7e-9
*Elastic
70000, 0.3
*Plastic, hardening=USER, properties=8
** SIGMA0,  THETA1,     Q1,    THETA2,      Q2,   THETA3,       Q3,   BLANK
 267.1,  32.602, 1.8230,    1425.7,  48.633, 129300.0,    10.675,     0.0
*Depvar, delete=6
6,
1,PEEQ,"equivalent plastic strain"
2,DAMAGE,"Damage Cockcroft-Latham"
3,leote,"Element aspect ratio"
4,omega,"Element deformation mode"
5,N,"Element normal"
6,FAIL,"Failure status"
*User Defined Field, properties=8
** dcrit,     WcB,    WcS,   WcL,      c, phi, gamma,  THICK
     1.0,  390.47,  83.46,  33.0,  0.950, 1.0,   1.0, 1.93
*****************************************************************************
****                          INSIDE WALL MIDDLE                         ****
*****************************************************************************
*material,name=C28_INSIDE_WALL_MIDDLE
*density
2.7e-9
*Elastic
70000, 0.3
*Plastic, hardening=USER, properties=8
** SIGMA0,  THETA1,     Q1,    THETA2,      Q2,   THETA3,       Q3,   BLANK
 267.1,  32.602, 1.8230,    1425.7,  48.633, 129300.0,    10.675,     0.0
*Depvar, delete=6
6,
1,PEEQ,"equivalent plastic strain"
2,DAMAGE,"Damage Cockcroft-Latham"
3,leote,"Element aspect ratio"
4,omega,"Element deformation mode"
5,N,"Element normal"
6,FAIL,"Failure status"
*User Defined Field, properties=8
** dcrit,     WcB,    WcS,   WcL,      c, phi, gamma,  THICK
     1.0,  390.47,  83.46,  33.0,  0.950, 1.0,   1.0, 1.27
** 
** INTERACTION PROPERTIES
** 
*Surface Interaction, name=Interaction
*Friction
 0.05,
*Surface Behavior, pressure-overclosure=HARD
** 
** BOUNDARY CONDITIONS
** 
** Name: Clamp_cross-section Type: Displacement/Rotation
*Boundary
Cross-section.CLAMPED, 1, 1
Cross-section.CLAMPED, 2, 2
Cross-section.CLAMPED, 3, 3
Cross-section.CLAMPED, 4, 4
Cross-section.CLAMPED, 5, 5
Cross-section.CLAMPED, 6, 6
** Name: Clamp_impactor Type: Displacement/Rotation
*Boundary
IMPACTOR-1.IMPACTOR_RP, 1, 1
IMPACTOR-1.IMPACTOR_RP, 2, 2
IMPACTOR-1.IMPACTOR_RP, 4, 4
IMPACTOR-1.IMPACTOR_RP, 5, 5
IMPACTOR-1.IMPACTOR_RP, 6, 6
** ----------------------------------------------------------------
** 
** STEP: loading
** 
*Step, name=loading, nlgeom=YES
*Dynamic, Explicit
, 0.05
*Bulk Viscosity
0.06, 1.2
** 
** BOUNDARY CONDITIONS
** 
** Name: BC-3 Type: Velocity/Angular velocity
*Boundary, amplitude=Load_amp, type=VELOCITY
IMPACTOR-1.IMPACTOR_RP, 3, 3, 1500.
** 
** INTERACTIONS
** 
** Interaction: Interaction
*Contact, op=NEW
*Contact Inclusions, ALL EXTERIOR
*Contact Property Assignment
 ,  , Interaction
** 
** OUTPUT REQUESTS
** 
*Restart, write, number interval=1, time marks=NO
** 
** FIELD OUTPUT: F-Output-1
** 
*Output, field, number interval=100
*Node Output
U, 
*Element Output, directions=YES
LE, MISES, PEEQ, SDV, STATUS
** 
** HISTORY OUTPUT: H-Output-1
** 
*Output, history, variable=PRESELECT
** 
** HISTORY OUTPUT: F-D
** 
*Output, history, time interval=5e-05
*Node Output, nset=IMPACTOR-1.IMPACTOR_RP
RF3, U3
*End Step
